Version 4.1
SHEET 1 1188 864
WIRE 528 -112 256 -112
WIRE 736 -112 528 -112
WIRE 256 -48 256 -112
WIRE 208 32 -16 32
WIRE -160 80 -176 80
WIRE -48 80 -96 80
WIRE 256 80 256 48
WIRE 256 80 -48 80
WIRE -16 160 -16 32
WIRE 96 160 -16 160
WIRE 256 160 256 80
WIRE 256 160 176 160
WIRE -1120 176 -1296 176
WIRE -176 176 -176 80
WIRE -176 176 -240 176
WIRE -144 176 -176 176
WIRE -48 176 -48 80
WIRE -48 176 -80 176
WIRE 256 208 256 160
WIRE 528 208 528 -112
WIRE 736 208 736 -112
WIRE -16 224 -16 160
WIRE 208 224 -16 224
WIRE -1120 256 -1120 176
WIRE -768 256 -1120 256
WIRE -608 256 -688 256
WIRE -240 256 -240 176
WIRE -240 256 -416 256
WIRE -1520 304 -1520 272
WIRE 256 336 256 304
WIRE 528 336 528 272
WIRE 528 336 256 336
WIRE -608 352 -880 352
WIRE -16 352 -16 224
WIRE -16 352 -416 352
WIRE 736 352 736 288
WIRE 256 400 256 336
WIRE -1296 416 -1296 176
WIRE -1280 416 -1296 416
WIRE -176 432 -176 176
WIRE 256 512 256 480
WIRE -176 560 -176 512
WIRE -1520 592 -1520 384
WIRE -1280 592 -1280 496
WIRE -1280 592 -1520 592
WIRE -880 592 -880 352
WIRE -880 592 -1280 592
WIRE -880 656 -880 592
WIRE -176 656 -176 624
WIRE -176 656 -880 656
WIRE 256 656 256 592
WIRE 256 656 -176 656
WIRE 736 656 736 432
WIRE 736 656 256 656
WIRE 256 688 256 656
FLAG 256 688 0
SYMBOL res 240 496 R0
SYMATTR InstName R2
SYMATTR Value 3.5
SYMBOL bv 736 192 R0
SYMATTR InstName B1
SYMATTR Value V=white(1e6*time)*1.66
SYMBOL res 192 144 R90
WINDOW 0 0 56 VBottom 2
WINDOW 3 32 56 VTop 2
SYMATTR InstName R4
SYMATTR Value 4.7k
SYMBOL cap -96 64 R90
WINDOW 0 0 32 VBottom 2
WINDOW 3 32 32 VTop 2
SYMATTR InstName C1
SYMATTR Value 4.7µ
SYMBOL res -192 416 R0
SYMATTR InstName R1
SYMATTR Value 866
SYMBOL schottky -160 624 R180
WINDOW 0 24 64 Left 2
WINDOW 3 24 0 Left 2
SYMATTR InstName D1
SYMATTR Value MBRS1100
SYMATTR Description Diode
SYMATTR Type diode
SYMBOL zener -80 160 R90
WINDOW 0 -4 32 VBottom 2
WINDOW 3 36 32 VTop 2
SYMATTR InstName D2
SYMATTR Value PDZV12B
SYMATTR Description Diode
SYMATTR Type diode
SYMBOL voltage -1280 400 R0
WINDOW 123 0 0 Left 0
WINDOW 39 0 0 Left 0
SYMATTR InstName V2
SYMATTR Value PULSE(0 5 20m 1n 1n 20m 40m)
SYMBOL res -672 240 R90
WINDOW 0 0 56 VBottom 2
WINDOW 3 32 56 VTop 2
SYMATTR InstName R3
SYMATTR Value 100
SYMBOL nmos 208 304 M180
SYMATTR InstName M1
SYMATTR Value NTMFD5C672NL
SYMATTR Prefix X
SYMBOL nmos 208 -48 R0
SYMATTR InstName M2
SYMATTR Value NTMFD5C672NL
SYMATTR Prefix X
SYMBOL Optos\\PC817D -512 304 R0
SYMATTR InstName U1
SYMBOL voltage -1520 288 R0
SYMATTR InstName V3
SYMATTR Value 5V
SYMBOL ind 240 384 R0
SYMATTR InstName L1
SYMATTR Value 3µ
SYMATTR SpiceLine Rser=1m
SYMBOL TVSdiode 512 208 R0
SYMATTR InstName D3
SYMATTR Value SMBJ36CA
SYMATTR Prefix X
SYMBOL voltage 736 336 R0
WINDOW 123 0 0 Left 0
WINDOW 39 0 0 Left 0
SYMATTR InstName V4
SYMATTR Value SINE(0 33.9 50)
TEXT -352 -176 Left 2 !.tran 0 100m 0 1u
TEXT -352 -128 Left 2 !.include NTMFD5C672NL.lib
TEXT -352 -80 Left 2 !.include SMCJ36CA.lib
